Circuit: * D:\MY_PROJECTS\VLSI_WORKS\LTspice\LAB_1_Small_signal_analysis\TASK_1_gd_Vgs_const\AVLSI_LAB_1_mosfet_charactristics_basic.asc

Warning: Multiple definitions of model "aons66402" Type: Vdmos1
Instance "m1": Length shorter than recommended for a level 1 MOSFET.
Vd: Missing value, assumed 0V @ DC

id: id(m1)=0.0004536 at 4
ro: 1/d(id(m1))=82304.7 at 4
ron_0.2: 1/d(id(m1))=2402.19 at 0.2


Date: Mon Aug 26 16:58:07 2024
Total elapsed time: 0.262 seconds.

tnom = 27
temp = 27
method = trap
totiter = 104
traniter = 0
tranpoints = 0
accept = 0
rejected = 0
matrix size = 4
fillins = 0
solver = Normal
Matrix Compiler1: 118 bytes object code size  0.1/0.1/[0.0]
Matrix Compiler2: 216 bytes object code size  0.1/0.1/[0.0]

